* LVS netlist generated with ICnet by 'jpw33' on Wed May  8 2019 at 00:05:58

*
* Globals.
*
.global GND VDD

*
* Component pathname : $ADK/parts/aoi21
*
.subckt aoi21  A0 A1 B0 Y

        M_I$12 N$8 A1 GND GND n L=1.2u W=6u
        M_I$11 Y A0 N$8 GND n L=1.2u W=6u
        M_I$7 Y B0 N$4 VDD p L=1.2u W=7.8u
        M_I$6 N$4 A1 VDD VDD p L=1.2u W=7.8u
        M_I$5 N$4 A0 VDD VDD p L=1.2u W=7.8u
        M_I$13 Y B0 GND GND n L=1.2u W=3u
.ends aoi21

*
* Component pathname : $ADK/parts/nand02
*
.subckt nand02  Y A0 A1

        M_I$472 Y A1 VDD VDD p L=1.2u W=7.2u
        M_I$471 Y A0 VDD VDD p L=1.2u W=7.2u
        M_I$4 Y A0 N$7 GND n L=1.2u W=6u
        M_I$5 N$7 A1 GND GND n L=1.2u W=6u
.ends nand02

*
* Component pathname : $ADK/parts/oai21
*
.subckt oai21  A0 A1 B0 Y

        M_I$5 N$7 B0 GND GND n L=1.2u W=6u
        M_I$4 Y A1 N$7 GND n L=1.2u W=6u
        M_I$3 Y A0 N$7 GND n L=1.2u W=6u
        M_I$12 Y B0 VDD VDD p L=1.2u W=7.2u
        M_I$2 Y A1 N$9 VDD p L=1.2u W=14.4u
        M_I$1 N$9 A0 VDD VDD p L=1.2u W=14.4u
.ends oai21

*
* Component pathname : $ADK/parts/inv01
*
.subckt inv01  A Y

        M_I$411 Y A VDD VDD p L=1.2u W=5.4u
        M_I$412 Y A GND GND n L=1.2u W=3u
.ends inv01

*
* Component pathname : $ADK/parts/nor04
*
.subckt nor04  A3 A2 A0 A1 Y

        M_I$415 Y A3 GND GND n L=1.2u W=6u
        M_I$416 Y A3 N$418 VDD p L=1.2u W=21.6u
        M_I$213 Y A0 GND GND n L=1.2u W=6u
        M_I$211 N$418 A2 N$211 VDD p L=1.2u W=21.6u
        M_I$5 Y A1 GND GND n L=1.2u W=6u
        M_I$4 Y A2 GND GND n L=1.2u W=6u
        M_I$3 N$211 A1 N$1 VDD p L=1.2u W=21.6u
        M_I$2 N$1 A0 VDD VDD p L=1.2u W=21.6u
.ends nor04

*
* Component pathname : $ADK/parts/and03
*
.subckt and03  A1 Y A0 A2

        M_I$430 Y A VDD VDD p L=1.2u W=5.4u
        M_I$429 Y A GND GND n L=1.2u W=3u
        M_I$426 A A2 VDD VDD p L=1.2u W=9u
        M_I$425 A A0 N$416 GND n L=1.2u W=9u
        M_I$424 N$417 A2 GND GND n L=1.2u W=9u
        M_I$423 N$416 A1 N$417 GND n L=1.2u W=9u
        M_I$419 A A1 VDD VDD p L=1.2u W=9u
        M_I$418 A A0 VDD VDD p L=1.2u W=9u
.ends and03

*
* Component pathname : $ADK/parts/nor02ii
*
.subckt nor02ii  A0 A1 Y

        MP1 N$208 A1 VDD VDD p L=1.2u W=5.4u
        MN1 N$208 A1 GND GND n L=1.2u W=3u
        MN4 Y A0 GND GND n L=1.2u W=3u
        MN2 Y N$208 GND GND n L=1.2u W=3u
        MP4 Y N$208 N$4 VDD p L=1.2u W=7.8u
        MP2 N$4 A0 VDD VDD p L=1.2u W=7.8u
.ends nor02ii

*
* Component pathname : $ADK/parts/oai33
*
.subckt oai33  B2 A2 B1 A0 A1 B0 Y

        M_I$673 N$7 B2 GND GND n L=1.2u W=9u
        M_I$674 Y B2 N$827 VDD p L=1.2u W=21.6u
        M_I$471 Y A2 N$415 VDD p L=1.2u W=21.6u
        M_I$470 Y A2 N$7 GND n L=1.2u W=9u
        M_I$267 N$7 B1 GND GND n L=1.2u W=9u
        M_I$265 N$827 B1 N$414 VDD p L=1.2u W=21.6u
        M_I$5 N$7 B0 GND GND n L=1.2u W=9u
        M_I$4 Y A1 N$7 GND n L=1.2u W=9u
        M_I$3 Y A0 N$7 GND n L=1.2u W=9u
        M_I$12 N$414 B0 VDD VDD p L=1.2u W=21.6u
        M_I$2 N$415 A1 N$9 VDD p L=1.2u W=21.6u
        M_I$1 N$9 A0 VDD VDD p L=1.2u W=21.6u
.ends oai33

*
* Component pathname : $ADK/parts/or04
*
.subckt or04  A3 A2 A0 A1 Y

        M_I$620 Y N$625 GND GND n L=1.2u W=3u
        M_I$619 Y N$625 VDD VDD p L=1.2u W=5.4u
        M_I$415 N$625 A3 GND GND n L=1.2u W=4.2u
        M_I$416 N$625 A3 N$418 VDD p L=1.2u W=21.6u
        M_I$213 N$625 A0 GND GND n L=1.2u W=4.2u
        M_I$211 N$418 A2 N$211 VDD p L=1.2u W=21.6u
        M_I$5 N$625 A1 GND GND n L=1.2u W=4.2u
        M_I$4 N$625 A2 GND GND n L=1.2u W=4.2u
        M_I$3 N$211 A1 N$1 VDD p L=1.2u W=21.6u
        M_I$2 N$1 A0 VDD VDD p L=1.2u W=21.6u
.ends or04

*
* Component pathname : $ADK/parts/aoi22
*
.subckt aoi22  B1 A0 A1 B0 Y

        M_I$425 Y B0 N$9 GND n L=1.2u W=6u
        M_I$426 Y B1 N$4 VDD p L=1.2u W=7.8u
        M_I$12 N$8 A1 GND GND n L=1.2u W=6u
        M_I$11 Y A0 N$8 GND n L=1.2u W=6u
        M_I$7 Y B0 N$4 VDD p L=1.2u W=7.8u
        M_I$6 N$4 A1 VDD VDD p L=1.2u W=7.8u
        M_I$5 N$4 A0 VDD VDD p L=1.2u W=7.8u
        M_I$13 N$9 B1 GND GND n L=1.2u W=6u
.ends aoi22

*
* Component pathname : $ADK/parts/oai22
*
.subckt oai22  B1 A0 A1 B0 Y

        M_I$267 N$7 B1 GND GND n L=1.2u W=6u
        M_I$265 Y B1 N$414 VDD p L=1.2u W=14.4u
        M_I$5 N$7 B0 GND GND n L=1.2u W=6u
        M_I$4 Y A1 N$7 GND n L=1.2u W=6u
        M_I$3 Y A0 N$7 GND n L=1.2u W=6u
        M_I$12 N$414 B0 VDD VDD p L=1.2u W=14.4u
        M_I$2 Y A1 N$9 VDD p L=1.2u W=14.4u
        M_I$1 N$9 A0 VDD VDD p L=1.2u W=14.4u
.ends oai22

*
* Component pathname : $ADK/parts/ao22
*
.subckt ao22  A1 A0 B0 Y B1

        M_I$16 Y N$215 VDD VDD p L=1.2u W=5.4u
        M_I$18 Y N$215 GND GND n L=1.2u W=3u
        M_I$14 N$215 B0 N$2 GND n L=1.2u W=6u
        M_I$13 N$215 B1 N$6 VDD p L=1.2u W=7.8u
        M_I$12 N$1 A1 GND GND n L=1.2u W=6u
        M_I$11 N$215 A0 N$1 GND n L=1.2u W=6u
        M_I$7 N$215 B0 N$6 VDD p L=1.2u W=7.8u
        M_I$6 N$6 A1 VDD VDD p L=1.2u W=7.8u
        M_I$5 N$6 A0 VDD VDD p L=1.2u W=7.8u
        M_I$4 N$2 B1 GND GND n L=1.2u W=6u
.ends ao22

*
* Component pathname : $ADK/parts/nor03
*
.subckt nor03  A2 A0 A1 Y

        M_I$213 Y A0 GND GND n L=1.2u W=3.6u
        M_I$211 Y A2 N$211 VDD p L=1.2u W=16.2u
        M_I$5 Y A1 GND GND n L=1.2u W=3.6u
        M_I$4 Y A2 GND GND n L=1.2u W=3.6u
        M_I$3 N$211 A1 N$1 VDD p L=1.2u W=16.2u
        M_I$2 N$1 A0 VDD VDD p L=1.2u W=16.2u
.ends nor03

*
* Component pathname : $ADK/parts/ao32
*
.subckt ao32  Y A0 A1 A2 B0 B1

        M_I$222 Y N$214 GND GND n L=1.2u W=3u
        M_I$221 Y N$214 VDD VDD p L=1.2u W=5.4u
        M_I$12 N$6 B1 GND GND n L=1.2u W=6u
        M_I$11 N$214 B0 N$6 GND n L=1.2u W=6u
        M_I$10 N$5 A2 GND GND n L=1.2u W=9u
        M_I$9 N$4 A1 N$5 GND n L=1.2u W=9u
        M_I$8 N$214 A0 N$4 GND n L=1.2u W=9u
        M_I$6 N$214 B0 N$11 VDD p L=1.2u W=7.8u
        M_I$5 N$214 B1 N$11 VDD p L=1.2u W=7.8u
        M_I$4 N$11 A0 VDD VDD p L=1.2u W=7.8u
        M_I$3 N$11 A1 VDD VDD p L=1.2u W=7.8u
        M_I$2 N$11 A2 VDD VDD p L=1.2u W=7.8u
.ends ao32

*
* Component pathname : $ADK/parts/aoi32
*
.subckt aoi32  A0 A1 A2 B0 B1 Y

        M_I$12 N$8 B1 GND GND n L=1.2u W=6u
        M_I$11 Y B0 N$8 GND n L=1.2u W=6u
        M_I$10 N$7 A2 GND GND n L=1.2u W=9u
        M_I$9 N$6 A1 N$7 GND n L=1.2u W=9u
        M_I$8 Y A0 N$6 GND n L=1.2u W=9u
        M_I$6 Y B0 N$14 VDD p L=1.2u W=7.8u
        M_I$5 Y B1 N$14 VDD p L=1.2u W=7.8u
        M_I$4 N$14 A0 VDD VDD p L=1.2u W=7.8u
        M_I$3 N$14 A1 VDD VDD p L=1.2u W=7.8u
        M_I$2 N$14 A2 VDD VDD p L=1.2u W=7.8u
.ends aoi32

*
* Component pathname : $ADK/parts/nor02
*
.subckt nor02  A0 A1 Y

        M_I$5 Y A0 GND GND n L=1.2u W=3u
        M_I$4 Y A1 GND GND n L=1.2u W=3u
        M_I$3 Y A1 N$1 VDD p L=1.2u W=7.8u
        M_I$2 N$1 A0 VDD VDD p L=1.2u W=7.8u
.ends nor02

*
* Component pathname : $ADK/parts/xnor2
*
.subckt xnor2  Y A0 A1

        M_I$218 N$213 A1 GND GND n L=1.2u W=6u
        M_I$217 N$212 A0 N$213 GND n L=1.2u W=6u
        M_I$9 N$212 A1 VDD VDD p L=1.2u W=7.8u
        M_I$8 N$212 A0 VDD VDD p L=1.2u W=7.8u
        M_I$7 N$3 N$212 GND GND n L=1.2u W=6u
        M_I$6 Y A1 N$3 GND n L=1.2u W=6u
        M_I$5 Y A0 N$3 GND n L=1.2u W=6u
        M_I$4 Y A1 N$1 VDD p L=1.2u W=15.6u
        M_I$3 Y N$212 VDD VDD p L=1.2u W=7.8u
        M_I$2 N$1 A0 VDD VDD p L=1.2u W=15.6u
.ends xnor2

*
* Component pathname : $ADK/parts/nand03
*
.subckt nand03  A1 Y A0 A2

        M_I$10 Y A2 VDD VDD p L=1.2u W=9u
        M_I$9 Y A0 N$4 GND n L=1.2u W=9u
        M_I$8 N$5 A2 GND GND n L=1.2u W=9u
        M_I$7 N$4 A1 N$5 GND n L=1.2u W=9u
        M_I$3 Y A1 VDD VDD p L=1.2u W=9u
        M_I$2 Y A0 VDD VDD p L=1.2u W=9u
.ends nand03

*
* Component pathname : $HOME/VLSI-2/Project/Decoder/Multiplier/schem/multiplier
*
.subckt multiplier  A_9__3 A_9__4 A_10__0 A_10__1 A_10__2 A_10__3 A_10__4
+ A_11__0 A_11__1 A_11__2 A_11__3 A_11__4 A_12__0 A_12__1 A_12__2 A_12__3
+ A_12__4 A_13__0 A_13__1 A_13__2 A_13__3 A_13__4 A_14__0 A_14__1 A_14__2
+ A_14__3 A_14__4 A_15__0 A_15__1 A_15__2 A_15__3 A_15__4 A_3__1 A_3__2
+ A_3__3 A_3__4 A_4__0 A_4__1 A_4__2 A_4__3 A_4__4 A_5__0 A_5__1 A_5__2
+ A_5__3 A_5__4 A_6__0 A_6__1 A_6__2 A_6__3 A_6__4 A_7__0 A_7__1 A_7__2
+ A_7__3 A_7__4 A_8__0 A_8__1 A_8__2 A_8__3 A_8__4 A_9__0 A_9__1 A_9__2
+ B_12__4 B_13__0 B_13__1 B_13__2 B_13__3 B_13__4 B_14__0 B_14__1 B_14__2
+ B_14__3 B_14__4 B_15__0 B_15__1 B_15__2 B_15__3 B_15__4 A_0__0 A_0__1
+ A_0__2 A_0__3 A_0__4 A_1__0 A_1__1 A_1__2 A_1__3 A_1__4 A_2__0 A_2__1
+ A_2__2 A_2__3 A_2__4 A_3__0 B_6__2 B_6__3 B_6__4 B_7__0 B_7__1 B_7__2
+ B_7__3 B_7__4 B_8__0 B_8__1 B_8__2 B_8__3 B_8__4 B_9__0 B_9__1 B_9__2
+ B_9__3 B_9__4 B_10__0 B_10__1 B_10__2 B_10__3 B_10__4 B_11__0 B_11__1
+ B_11__2 B_11__3 B_11__4 B_12__0 B_12__1 B_12__2 B_12__3 B_0__0 B_0__1
+ B_0__2 B_0__3 B_0__4 B_1__0 B_1__1 B_1__2 B_1__3 B_1__4 B_2__0 B_2__1
+ B_2__2 B_2__3 B_2__4 B_3__0 B_3__1 B_3__2 B_3__3 B_3__4 B_4__0 B_4__1
+ B_4__2 B_4__3 B_4__4 B_5__0 B_5__1 B_5__2 B_5__3 B_5__4 B_6__0 B_6__1
+ C_9__3 C_9__4 C_10__0 C_10__1 C_10__2 C_10__3 C_10__4 C_11__0 C_11__1
+ C_11__2 C_11__3 C_11__4 C_12__0 C_12__1 C_12__2 C_12__3 C_12__4 C_13__0
+ C_13__1 C_13__2 C_13__3 C_13__4 C_14__0 C_14__1 C_14__2 C_14__3 C_14__4
+ C_15__0 C_15__1 C_15__2 C_15__3 C_15__4 C_3__1 C_3__2 C_3__3 C_3__4 C_4__0
+ C_4__1 C_4__2 C_4__3 C_4__4 C_5__0 C_5__1 C_5__2 C_5__3 C_5__4 C_6__0
+ C_6__1 C_6__2 C_6__3 C_6__4 C_7__0 C_7__1 C_7__2 C_7__3 C_7__4 C_8__0
+ C_8__1 C_8__2 C_8__3 C_8__4 C_9__0 C_9__1 C_9__2 C_0__0 C_0__1 C_0__2
+ C_0__3 C_0__4 C_1__0 C_1__1 C_1__2 C_1__3 C_1__4 C_2__0 C_2__1 C_2__2
+ C_2__3 C_2__4 C_3__0

        X_chipmulties_0_cm_ix193 chipmulties_0_cm_nx583 B_0__4 chipmulties_0_cm_nx22
+ chipmulties_0_cm_nx192 aoi21
        X_chipmulties_0_cm_ix581 B_0__1 chipmulties_0_cm_nx192 chipmulties_0_cm_nx228
+ chipmulties_0_cm_nx580 aoi21
        X_chipmulties_0_cm_ix29 chipmulties_0_cm_nx511 A_0__2 chipmulties_0_cm_nx513
+ chipmulties_0_cm_nx28 aoi21
        X_chipmulties_0_cm_ix63 chipmulties_0_cm_nx511 chipmulties_0_cm_nx528
+ chipmulties_0_cm_nx508 chipmulties_0_cm_nx62 aoi21
        X_chipmulties_0_cm_ix554 chipmulties_0_cm_nx555 chipmulties_0_cm_nx46
+ A_0__4 chipmulties_0_cm_nx553 aoi21
        X_chipmulties_0_cm_ix185 chipmulties_0_cm_nx550 chipmulties_0_cm_nx569
+ chipmulties_0_cm_nx575 C_0__3 aoi21
        X_chipmulties_0_cm_ix590 A_0__2 A_0__1 B_0__4 chipmulties_0_cm_nx589 aoi21
        X_chipmulties_0_cm_ix55 chipmulties_0_cm_nx54 chipmulties_0_cm_nx511
+ chipmulties_0_cm_nx528 nand02
        X_chipmulties_0_cm_ix558 chipmulties_0_cm_nx557 chipmulties_0_cm_nx528
+ chipmulties_0_cm_nx154 nand02
        X_chipmulties_0_cm_ix3 chipmulties_0_cm_nx2 chipmulties_0_cm_nx506
+ A_0__4 nand02
        X_chipmulties_0_cm_ix165 chipmulties_0_cm_nx164 chipmulties_0_cm_nx555
+ A_0__4 nand02
        X_chipmulties_0_cm_ix47 chipmulties_0_cm_nx46 A_0__0 A_0__1 nand02
        X_chipmulties_0_cm_ix504 chipmulties_0_cm_nx2 A_0__2 B_0__0 chipmulties_0_cm_nx503 oai21
        X_chipmulties_0_cm_ix509 chipmulties_0_cm_nx2 A_0__1 chipmulties_0_cm_nx28
+ chipmulties_0_cm_nx508 oai21
        X_chipmulties_0_cm_ix155 chipmulties_0_cm_nx506 A_0__0 chipmulties_0_cm_nx560
+ chipmulties_0_cm_nx154 oai21
        X_chipmulties_0_cm_ix551 chipmulties_0_cm_nx2 A_0__1 chipmulties_0_cm_nx178
+ chipmulties_0_cm_nx550 oai21
        X_chipmulties_0_cm_ix540 A_0__2 B_0__1 chipmulties_0_cm_nx541 chipmulties_0_cm_nx539 oai21
        X_chipmulties_0_cm_ix592 chipmulties_0_cm_nx46 chipmulties_0_cm_nx528
+ A_0__3 chipmulties_0_cm_nx591 oai21
        X_chipmulties_0_cm_ix584 chipmulties_0_cm_nx46 chipmulties_0_cm_nx583 inv01
        X_chipmulties_0_cm_ix19 chipmulties_0_cm_nx513 chipmulties_0_cm_nx18 inv01
        X_chipmulties_0_cm_ix23 chipmulties_0_cm_nx511 chipmulties_0_cm_nx22 inv01
        X_chipmulties_0_cm_ix574 A_0__4 chipmulties_0_cm_nx573 inv01
        X_chipmulties_0_cm_ix502 A_0__0 chipmulties_0_cm_nx501 inv01
        X_chipmulties_0_cm_ix572 chipmulties_0_cm_nx2 chipmulties_0_cm_nx571 inv01
        X_chipmulties_0_cm_ix534 B_0__0 chipmulties_0_cm_nx533 inv01
        X_chipmulties_0_cm_ix556 A_0__2 chipmulties_0_cm_nx555 inv01
        X_chipmulties_0_cm_ix79 chipmulties_0_cm_nx535 chipmulties_0_cm_nx78 inv01
        X_chipmulties_0_cm_ix507 A_0__3 chipmulties_0_cm_nx506 inv01
        X_chipmulties_0_cm_ix563 B_0__1 chipmulties_0_cm_nx562 inv01
        X_chipmulties_0_cm_ix529 B_0__4 chipmulties_0_cm_nx528 inv01
        X_chipmulties_0_cm_ix41 chipmulties_0_cm_nx518 chipmulties_0_cm_nx508
+ chipmulties_0_cm_nx501 chipmulties_0_cm_nx503 C_0__0 nor04
        X_chipmulties_0_cm_ix109 chipmulties_0_cm_nx537 chipmulties_0_cm_nx535
+ chipmulties_0_cm_nx508 chipmulties_0_cm_nx533 C_0__2 nor04
        X_chipmulties_0_cm_ix519 chipmulties_0_cm_nx573 chipmulties_0_cm_nx518
+ A_0__3 A_0__1 and03
        X_chipmulties_0_cm_ix512 A_0__4 A_0__3 chipmulties_0_cm_nx511 nor02ii
        X_chipmulties_0_cm_ix131 A_0__3 B_0__1 chipmulties_0_cm_nx130 nor02ii
        X_chipmulties_0_cm_ix229 chipmulties_0_cm_nx591 chipmulties_0_cm_nx589
+ chipmulties_0_cm_nx573 chipmulties_0_cm_nx587 chipmulties_0_cm_nx535 B_0__1
+ chipmulties_0_cm_nx228 oai33
        X_chipmulties_0_cm_ix570 chipmulties_0_cm_nx571 chipmulties_0_cm_nx560
+ chipmulties_0_cm_nx528 A_0__1 chipmulties_0_cm_nx569 or04
        X_chipmulties_0_cm_ix561 chipmulties_0_cm_nx130 chipmulties_0_cm_nx562
+ A_0__3 chipmulties_0_cm_nx78 chipmulties_0_cm_nx560 aoi22
        X_chipmulties_0_cm_ix588 chipmulties_0_cm_nx130 chipmulties_0_cm_nx562
+ chipmulties_0_cm_nx571 chipmulties_0_cm_nx573 chipmulties_0_cm_nx587 aoi22
        X_chipmulties_0_cm_ix546 A_0__4 chipmulties_0_cm_nx2 chipmulties_0_cm_nx528
+ chipmulties_0_cm_nx506 chipmulties_0_cm_nx545 oai22
        X_chipmulties_0_cm_ix179 chipmulties_0_cm_nx566 chipmulties_0_cm_nx553
+ chipmulties_0_cm_nx557 chipmulties_0_cm_nx528 chipmulties_0_cm_nx178 oai22
        X_chipmulties_0_cm_ix538 chipmulties_0_cm_nx543 chipmulties_0_cm_nx539
+ chipmulties_0_cm_nx545 chipmulties_0_cm_nx537 chipmulties_0_cm_nx547 ao22
        X_chipmulties_0_cm_ix536 A_0__2 A_0__0 A_0__1 chipmulties_0_cm_nx535 nor03
        X_chipmulties_0_cm_ix69 chipmulties_0_cm_nx68 B_0__1 A_0__0 chipmulties_0_cm_nx62
+ A_0__1 chipmulties_0_cm_nx28 ao32
        X_chipmulties_0_cm_ix524 chipmulties_0_cm_nx52 chipmulties_0_cm_nx54
+ chipmulties_0_cm_nx28 chipmulties_0_cm_nx46 chipmulties_0_cm_nx68 chipmulties_0_cm_nx523 aoi32
        X_chipmulties_0_cm_ix567 chipmulties_0_cm_nx164 chipmulties_0_cm_nx78
+ chipmulties_0_cm_nx130 A_0__3 chipmulties_0_cm_nx541 chipmulties_0_cm_nx566 aoi32
        X_chipmulties_0_cm_ix233 chipmulties_0_cm_nx575 chipmulties_0_cm_nx580
+ C_0__4 nor02
        X_chipmulties_0_cm_ix53 B_0__1 chipmulties_0_cm_nx46 chipmulties_0_cm_nx52 nor02
        X_chipmulties_0_cm_ix75 chipmulties_0_cm_nx503 chipmulties_0_cm_nx523
+ C_0__1 nor02
        X_chipmulties_0_cm_ix542 A_0__0 A_0__1 chipmulties_0_cm_nx541 nor02
        X_chipmulties_0_cm_ix13 chipmulties_0_cm_nx12 B_0__2 B_0__1 xnor2
        X_chipmulties_0_cm_ix15 chipmulties_0_cm_nx14 B_0__3 B_0__2 xnor2
        X_chipmulties_0_cm_ix11 chipmulties_0_cm_nx10 B_0__3 B_0__4 xnor2
        X_chipmulties_0_cm_ix544 chipmulties_0_cm_nx543 B_0__1 A_0__2 xnor2
        X_chipmulties_0_cm_ix514 chipmulties_0_cm_nx12 chipmulties_0_cm_nx513
+ chipmulties_0_cm_nx10 chipmulties_0_cm_nx14 nand03
        X_chipmulties_0_cm_ix548 B_0__4 chipmulties_0_cm_nx547 chipmulties_0_cm_nx2
+ chipmulties_0_cm_nx46 nand03
        X_chipmulties_0_cm_ix119 A_0__2 chipmulties_0_cm_nx118 B_0__4 A_0__3 nand03
        X_chipmulties_0_cm_ix576 B_0__0 chipmulties_0_cm_nx575 chipmulties_0_cm_nx118
+ chipmulties_0_cm_nx18 nand03
        X_chipmulties_1_cm_ix193 chipmulties_1_cm_nx583 B_1__4 chipmulties_1_cm_nx22
+ chipmulties_1_cm_nx192 aoi21
        X_chipmulties_1_cm_ix581 B_1__1 chipmulties_1_cm_nx192 chipmulties_1_cm_nx228
+ chipmulties_1_cm_nx580 aoi21
        X_chipmulties_1_cm_ix29 chipmulties_1_cm_nx511 A_1__2 chipmulties_1_cm_nx513
+ chipmulties_1_cm_nx28 aoi21
        X_chipmulties_1_cm_ix63 chipmulties_1_cm_nx511 chipmulties_1_cm_nx528
+ chipmulties_1_cm_nx508 chipmulties_1_cm_nx62 aoi21
        X_chipmulties_1_cm_ix554 chipmulties_1_cm_nx555 chipmulties_1_cm_nx46
+ A_1__4 chipmulties_1_cm_nx553 aoi21
        X_chipmulties_1_cm_ix185 chipmulties_1_cm_nx550 chipmulties_1_cm_nx569
+ chipmulties_1_cm_nx575 C_1__3 aoi21
        X_chipmulties_1_cm_ix590 A_1__2 A_1__1 B_1__4 chipmulties_1_cm_nx589 aoi21
        X_chipmulties_1_cm_ix55 chipmulties_1_cm_nx54 chipmulties_1_cm_nx511
+ chipmulties_1_cm_nx528 nand02
        X_chipmulties_1_cm_ix558 chipmulties_1_cm_nx557 chipmulties_1_cm_nx528
+ chipmulties_1_cm_nx154 nand02
        X_chipmulties_1_cm_ix3 chipmulties_1_cm_nx2 chipmulties_1_cm_nx506
+ A_1__4 nand02
        X_chipmulties_1_cm_ix165 chipmulties_1_cm_nx164 chipmulties_1_cm_nx555
+ A_1__4 nand02
        X_chipmulties_1_cm_ix47 chipmulties_1_cm_nx46 A_1__0 A_1__1 nand02
        X_chipmulties_1_cm_ix504 chipmulties_1_cm_nx2 A_1__2 B_1__0 chipmulties_1_cm_nx503 oai21
        X_chipmulties_1_cm_ix509 chipmulties_1_cm_nx2 A_1__1 chipmulties_1_cm_nx28
+ chipmulties_1_cm_nx508 oai21
        X_chipmulties_1_cm_ix155 chipmulties_1_cm_nx506 A_1__0 chipmulties_1_cm_nx560
+ chipmulties_1_cm_nx154 oai21
        X_chipmulties_1_cm_ix551 chipmulties_1_cm_nx2 A_1__1 chipmulties_1_cm_nx178
+ chipmulties_1_cm_nx550 oai21
        X_chipmulties_1_cm_ix540 A_1__2 B_1__1 chipmulties_1_cm_nx541 chipmulties_1_cm_nx539 oai21
        X_chipmulties_1_cm_ix592 chipmulties_1_cm_nx46 chipmulties_1_cm_nx528
+ A_1__3 chipmulties_1_cm_nx591 oai21
        X_chipmulties_1_cm_ix584 chipmulties_1_cm_nx46 chipmulties_1_cm_nx583 inv01
        X_chipmulties_1_cm_ix19 chipmulties_1_cm_nx513 chipmulties_1_cm_nx18 inv01
        X_chipmulties_1_cm_ix23 chipmulties_1_cm_nx511 chipmulties_1_cm_nx22 inv01
        X_chipmulties_1_cm_ix574 A_1__4 chipmulties_1_cm_nx573 inv01
        X_chipmulties_1_cm_ix502 A_1__0 chipmulties_1_cm_nx501 inv01
        X_chipmulties_1_cm_ix572 chipmulties_1_cm_nx2 chipmulties_1_cm_nx571 inv01
        X_chipmulties_1_cm_ix534 B_1__0 chipmulties_1_cm_nx533 inv01
        X_chipmulties_1_cm_ix556 A_1__2 chipmulties_1_cm_nx555 inv01
        X_chipmulties_1_cm_ix79 chipmulties_1_cm_nx535 chipmulties_1_cm_nx78 inv01
        X_chipmulties_1_cm_ix507 A_1__3 chipmulties_1_cm_nx506 inv01
        X_chipmulties_1_cm_ix563 B_1__1 chipmulties_1_cm_nx562 inv01
        X_chipmulties_1_cm_ix529 B_1__4 chipmulties_1_cm_nx528 inv01
        X_chipmulties_1_cm_ix41 chipmulties_1_cm_nx518 chipmulties_1_cm_nx508
+ chipmulties_1_cm_nx501 chipmulties_1_cm_nx503 C_1__0 nor04
        X_chipmulties_1_cm_ix109 chipmulties_1_cm_nx537 chipmulties_1_cm_nx535
+ chipmulties_1_cm_nx508 chipmulties_1_cm_nx533 C_1__2 nor04
        X_chipmulties_1_cm_ix519 chipmulties_1_cm_nx573 chipmulties_1_cm_nx518
+ A_1__3 A_1__1 and03
        X_chipmulties_1_cm_ix512 A_1__4 A_1__3 chipmulties_1_cm_nx511 nor02ii
        X_chipmulties_1_cm_ix131 A_1__3 B_1__1 chipmulties_1_cm_nx130 nor02ii
        X_chipmulties_1_cm_ix229 chipmulties_1_cm_nx591 chipmulties_1_cm_nx589
+ chipmulties_1_cm_nx573 chipmulties_1_cm_nx587 chipmulties_1_cm_nx535 B_1__1
+ chipmulties_1_cm_nx228 oai33
        X_chipmulties_1_cm_ix570 chipmulties_1_cm_nx571 chipmulties_1_cm_nx560
+ chipmulties_1_cm_nx528 A_1__1 chipmulties_1_cm_nx569 or04
        X_chipmulties_1_cm_ix561 chipmulties_1_cm_nx130 chipmulties_1_cm_nx562
+ A_1__3 chipmulties_1_cm_nx78 chipmulties_1_cm_nx560 aoi22
        X_chipmulties_1_cm_ix588 chipmulties_1_cm_nx130 chipmulties_1_cm_nx562
+ chipmulties_1_cm_nx571 chipmulties_1_cm_nx573 chipmulties_1_cm_nx587 aoi22
        X_chipmulties_1_cm_ix546 A_1__4 chipmulties_1_cm_nx2 chipmulties_1_cm_nx528
+ chipmulties_1_cm_nx506 chipmulties_1_cm_nx545 oai22
        X_chipmulties_1_cm_ix179 chipmulties_1_cm_nx566 chipmulties_1_cm_nx553
+ chipmulties_1_cm_nx557 chipmulties_1_cm_nx528 chipmulties_1_cm_nx178 oai22
        X_chipmulties_1_cm_ix538 chipmulties_1_cm_nx543 chipmulties_1_cm_nx539
+ chipmulties_1_cm_nx545 chipmulties_1_cm_nx537 chipmulties_1_cm_nx547 ao22
        X_chipmulties_1_cm_ix536 A_1__2 A_1__0 A_1__1 chipmulties_1_cm_nx535 nor03
        X_chipmulties_1_cm_ix69 chipmulties_1_cm_nx68 B_1__1 A_1__0 chipmulties_1_cm_nx62
+ A_1__1 chipmulties_1_cm_nx28 ao32
        X_chipmulties_1_cm_ix524 chipmulties_1_cm_nx52 chipmulties_1_cm_nx54
+ chipmulties_1_cm_nx28 chipmulties_1_cm_nx46 chipmulties_1_cm_nx68 chipmulties_1_cm_nx523 aoi32
        X_chipmulties_1_cm_ix567 chipmulties_1_cm_nx164 chipmulties_1_cm_nx78
+ chipmulties_1_cm_nx130 A_1__3 chipmulties_1_cm_nx541 chipmulties_1_cm_nx566 aoi32
        X_chipmulties_1_cm_ix233 chipmulties_1_cm_nx575 chipmulties_1_cm_nx580
+ C_1__4 nor02
        X_chipmulties_1_cm_ix53 B_1__1 chipmulties_1_cm_nx46 chipmulties_1_cm_nx52 nor02
        X_chipmulties_1_cm_ix75 chipmulties_1_cm_nx503 chipmulties_1_cm_nx523
+ C_1__1 nor02
        X_chipmulties_1_cm_ix542 A_1__0 A_1__1 chipmulties_1_cm_nx541 nor02
        X_chipmulties_1_cm_ix13 chipmulties_1_cm_nx12 B_1__2 B_1__1 xnor2
        X_chipmulties_1_cm_ix15 chipmulties_1_cm_nx14 B_1__3 B_1__2 xnor2
        X_chipmulties_1_cm_ix11 chipmulties_1_cm_nx10 B_1__3 B_1__4 xnor2
        X_chipmulties_1_cm_ix544 chipmulties_1_cm_nx543 B_1__1 A_1__2 xnor2
        X_chipmulties_1_cm_ix514 chipmulties_1_cm_nx12 chipmulties_1_cm_nx513
+ chipmulties_1_cm_nx10 chipmulties_1_cm_nx14 nand03
        X_chipmulties_1_cm_ix548 B_1__4 chipmulties_1_cm_nx547 chipmulties_1_cm_nx2
+ chipmulties_1_cm_nx46 nand03
        X_chipmulties_1_cm_ix119 A_1__2 chipmulties_1_cm_nx118 B_1__4 A_1__3 nand03
        X_chipmulties_1_cm_ix576 B_1__0 chipmulties_1_cm_nx575 chipmulties_1_cm_nx118
+ chipmulties_1_cm_nx18 nand03
        X_chipmulties_2_cm_ix193 chipmulties_2_cm_nx583 B_2__4 chipmulties_2_cm_nx22
+ chipmulties_2_cm_nx192 aoi21
        X_chipmulties_2_cm_ix581 B_2__1 chipmulties_2_cm_nx192 chipmulties_2_cm_nx228
+ chipmulties_2_cm_nx580 aoi21
        X_chipmulties_2_cm_ix29 chipmulties_2_cm_nx511 A_2__2 chipmulties_2_cm_nx513
+ chipmulties_2_cm_nx28 aoi21
        X_chipmulties_2_cm_ix63 chipmulties_2_cm_nx511 chipmulties_2_cm_nx528
+ chipmulties_2_cm_nx508 chipmulties_2_cm_nx62 aoi21
        X_chipmulties_2_cm_ix554 chipmulties_2_cm_nx555 chipmulties_2_cm_nx46
+ A_2__4 chipmulties_2_cm_nx553 aoi21
        X_chipmulties_2_cm_ix185 chipmulties_2_cm_nx550 chipmulties_2_cm_nx569
+ chipmulties_2_cm_nx575 C_2__3 aoi21
        X_chipmulties_2_cm_ix590 A_2__2 A_2__1 B_2__4 chipmulties_2_cm_nx589 aoi21
        X_chipmulties_2_cm_ix55 chipmulties_2_cm_nx54 chipmulties_2_cm_nx511
+ chipmulties_2_cm_nx528 nand02
        X_chipmulties_2_cm_ix558 chipmulties_2_cm_nx557 chipmulties_2_cm_nx528
+ chipmulties_2_cm_nx154 nand02
        X_chipmulties_2_cm_ix3 chipmulties_2_cm_nx2 chipmulties_2_cm_nx506
+ A_2__4 nand02
        X_chipmulties_2_cm_ix165 chipmulties_2_cm_nx164 chipmulties_2_cm_nx555
+ A_2__4 nand02
        X_chipmulties_2_cm_ix47 chipmulties_2_cm_nx46 A_2__0 A_2__1 nand02
        X_chipmulties_2_cm_ix504 chipmulties_2_cm_nx2 A_2__2 B_2__0 chipmulties_2_cm_nx503 oai21
        X_chipmulties_2_cm_ix509 chipmulties_2_cm_nx2 A_2__1 chipmulties_2_cm_nx28
+ chipmulties_2_cm_nx508 oai21
        X_chipmulties_2_cm_ix155 chipmulties_2_cm_nx506 A_2__0 chipmulties_2_cm_nx560
+ chipmulties_2_cm_nx154 oai21
        X_chipmulties_2_cm_ix551 chipmulties_2_cm_nx2 A_2__1 chipmulties_2_cm_nx178
+ chipmulties_2_cm_nx550 oai21
        X_chipmulties_2_cm_ix540 A_2__2 B_2__1 chipmulties_2_cm_nx541 chipmulties_2_cm_nx539 oai21
        X_chipmulties_2_cm_ix592 chipmulties_2_cm_nx46 chipmulties_2_cm_nx528
+ A_2__3 chipmulties_2_cm_nx591 oai21
        X_chipmulties_2_cm_ix584 chipmulties_2_cm_nx46 chipmulties_2_cm_nx583 inv01
        X_chipmulties_2_cm_ix19 chipmulties_2_cm_nx513 chipmulties_2_cm_nx18 inv01
        X_chipmulties_2_cm_ix23 chipmulties_2_cm_nx511 chipmulties_2_cm_nx22 inv01
        X_chipmulties_2_cm_ix574 A_2__4 chipmulties_2_cm_nx573 inv01
        X_chipmulties_2_cm_ix502 A_2__0 chipmulties_2_cm_nx501 inv01
        X_chipmulties_2_cm_ix572 chipmulties_2_cm_nx2 chipmulties_2_cm_nx571 inv01
        X_chipmulties_2_cm_ix534 B_2__0 chipmulties_2_cm_nx533 inv01
        X_chipmulties_2_cm_ix556 A_2__2 chipmulties_2_cm_nx555 inv01
        X_chipmulties_2_cm_ix79 chipmulties_2_cm_nx535 chipmulties_2_cm_nx78 inv01
        X_chipmulties_2_cm_ix507 A_2__3 chipmulties_2_cm_nx506 inv01
        X_chipmulties_2_cm_ix563 B_2__1 chipmulties_2_cm_nx562 inv01
        X_chipmulties_2_cm_ix529 B_2__4 chipmulties_2_cm_nx528 inv01
        X_chipmulties_2_cm_ix41 chipmulties_2_cm_nx518 chipmulties_2_cm_nx508
+ chipmulties_2_cm_nx501 chipmulties_2_cm_nx503 C_2__0 nor04
        X_chipmulties_2_cm_ix109 chipmulties_2_cm_nx537 chipmulties_2_cm_nx535
+ chipmulties_2_cm_nx508 chipmulties_2_cm_nx533 C_2__2 nor04
        X_chipmulties_2_cm_ix519 chipmulties_2_cm_nx573 chipmulties_2_cm_nx518
+ A_2__3 A_2__1 and03
        X_chipmulties_2_cm_ix512 A_2__4 A_2__3 chipmulties_2_cm_nx511 nor02ii
        X_chipmulties_2_cm_ix131 A_2__3 B_2__1 chipmulties_2_cm_nx130 nor02ii
        X_chipmulties_2_cm_ix229 chipmulties_2_cm_nx591 chipmulties_2_cm_nx589
+ chipmulties_2_cm_nx573 chipmulties_2_cm_nx587 chipmulties_2_cm_nx535 B_2__1
+ chipmulties_2_cm_nx228 oai33
        X_chipmulties_2_cm_ix570 chipmulties_2_cm_nx571 chipmulties_2_cm_nx560
+ chipmulties_2_cm_nx528 A_2__1 chipmulties_2_cm_nx569 or04
        X_chipmulties_2_cm_ix561 chipmulties_2_cm_nx130 chipmulties_2_cm_nx562
+ A_2__3 chipmulties_2_cm_nx78 chipmulties_2_cm_nx560 aoi22
        X_chipmulties_2_cm_ix588 chipmulties_2_cm_nx130 chipmulties_2_cm_nx562
+ chipmulties_2_cm_nx571 chipmulties_2_cm_nx573 chipmulties_2_cm_nx587 aoi22
        X_chipmulties_2_cm_ix546 A_2__4 chipmulties_2_cm_nx2 chipmulties_2_cm_nx528
+ chipmulties_2_cm_nx506 chipmulties_2_cm_nx545 oai22
        X_chipmulties_2_cm_ix179 chipmulties_2_cm_nx566 chipmulties_2_cm_nx553
+ chipmulties_2_cm_nx557 chipmulties_2_cm_nx528 chipmulties_2_cm_nx178 oai22
        X_chipmulties_2_cm_ix538 chipmulties_2_cm_nx543 chipmulties_2_cm_nx539
+ chipmulties_2_cm_nx545 chipmulties_2_cm_nx537 chipmulties_2_cm_nx547 ao22
        X_chipmulties_2_cm_ix536 A_2__2 A_2__0 A_2__1 chipmulties_2_cm_nx535 nor03
        X_chipmulties_2_cm_ix69 chipmulties_2_cm_nx68 B_2__1 A_2__0 chipmulties_2_cm_nx62
+ A_2__1 chipmulties_2_cm_nx28 ao32
        X_chipmulties_2_cm_ix524 chipmulties_2_cm_nx52 chipmulties_2_cm_nx54
+ chipmulties_2_cm_nx28 chipmulties_2_cm_nx46 chipmulties_2_cm_nx68 chipmulties_2_cm_nx523 aoi32
        X_chipmulties_2_cm_ix567 chipmulties_2_cm_nx164 chipmulties_2_cm_nx78
+ chipmulties_2_cm_nx130 A_2__3 chipmulties_2_cm_nx541 chipmulties_2_cm_nx566 aoi32
        X_chipmulties_2_cm_ix233 chipmulties_2_cm_nx575 chipmulties_2_cm_nx580
+ C_2__4 nor02
        X_chipmulties_2_cm_ix53 B_2__1 chipmulties_2_cm_nx46 chipmulties_2_cm_nx52 nor02
        X_chipmulties_2_cm_ix75 chipmulties_2_cm_nx503 chipmulties_2_cm_nx523
+ C_2__1 nor02
        X_chipmulties_2_cm_ix542 A_2__0 A_2__1 chipmulties_2_cm_nx541 nor02
        X_chipmulties_2_cm_ix13 chipmulties_2_cm_nx12 B_2__2 B_2__1 xnor2
        X_chipmulties_2_cm_ix15 chipmulties_2_cm_nx14 B_2__3 B_2__2 xnor2
        X_chipmulties_2_cm_ix11 chipmulties_2_cm_nx10 B_2__3 B_2__4 xnor2
        X_chipmulties_2_cm_ix544 chipmulties_2_cm_nx543 B_2__1 A_2__2 xnor2
        X_chipmulties_2_cm_ix514 chipmulties_2_cm_nx12 chipmulties_2_cm_nx513
+ chipmulties_2_cm_nx10 chipmulties_2_cm_nx14 nand03
        X_chipmulties_2_cm_ix548 B_2__4 chipmulties_2_cm_nx547 chipmulties_2_cm_nx2
+ chipmulties_2_cm_nx46 nand03
        X_chipmulties_2_cm_ix119 A_2__2 chipmulties_2_cm_nx118 B_2__4 A_2__3 nand03
        X_chipmulties_2_cm_ix576 B_2__0 chipmulties_2_cm_nx575 chipmulties_2_cm_nx118
+ chipmulties_2_cm_nx18 nand03
        X_chipmulties_3_cm_ix193 chipmulties_3_cm_nx583 B_3__4 chipmulties_3_cm_nx22
+ chipmulties_3_cm_nx192 aoi21
        X_chipmulties_3_cm_ix581 B_3__1 chipmulties_3_cm_nx192 chipmulties_3_cm_nx228
+ chipmulties_3_cm_nx580 aoi21
        X_chipmulties_3_cm_ix29 chipmulties_3_cm_nx511 A_3__2 chipmulties_3_cm_nx513
+ chipmulties_3_cm_nx28 aoi21
        X_chipmulties_3_cm_ix63 chipmulties_3_cm_nx511 chipmulties_3_cm_nx528
+ chipmulties_3_cm_nx508 chipmulties_3_cm_nx62 aoi21
        X_chipmulties_3_cm_ix554 chipmulties_3_cm_nx555 chipmulties_3_cm_nx46
+ A_3__4 chipmulties_3_cm_nx553 aoi21
        X_chipmulties_3_cm_ix185 chipmulties_3_cm_nx550 chipmulties_3_cm_nx569
+ chipmulties_3_cm_nx575 C_3__3 aoi21
        X_chipmulties_3_cm_ix590 A_3__2 A_3__1 B_3__4 chipmulties_3_cm_nx589 aoi21
        X_chipmulties_3_cm_ix55 chipmulties_3_cm_nx54 chipmulties_3_cm_nx511
+ chipmulties_3_cm_nx528 nand02
        X_chipmulties_3_cm_ix558 chipmulties_3_cm_nx557 chipmulties_3_cm_nx528
+ chipmulties_3_cm_nx154 nand02
        X_chipmulties_3_cm_ix3 chipmulties_3_cm_nx2 chipmulties_3_cm_nx506
+ A_3__4 nand02
        X_chipmulties_3_cm_ix165 chipmulties_3_cm_nx164 chipmulties_3_cm_nx555
+ A_3__4 nand02
        X_chipmulties_3_cm_ix47 chipmulties_3_cm_nx46 A_3__0 A_3__1 nand02
        X_chipmulties_3_cm_ix504 chipmulties_3_cm_nx2 A_3__2 B_3__0 chipmulties_3_cm_nx503 oai21
        X_chipmulties_3_cm_ix509 chipmulties_3_cm_nx2 A_3__1 chipmulties_3_cm_nx28
+ chipmulties_3_cm_nx508 oai21
        X_chipmulties_3_cm_ix155 chipmulties_3_cm_nx506 A_3__0 chipmulties_3_cm_nx560
+ chipmulties_3_cm_nx154 oai21
        X_chipmulties_3_cm_ix551 chipmulties_3_cm_nx2 A_3__1 chipmulties_3_cm_nx178
+ chipmulties_3_cm_nx550 oai21
        X_chipmulties_3_cm_ix540 A_3__2 B_3__1 chipmulties_3_cm_nx541 chipmulties_3_cm_nx539 oai21
        X_chipmulties_3_cm_ix592 chipmulties_3_cm_nx46 chipmulties_3_cm_nx528
+ A_3__3 chipmulties_3_cm_nx591 oai21
        X_chipmulties_3_cm_ix584 chipmulties_3_cm_nx46 chipmulties_3_cm_nx583 inv01